
     RDKit          3D

107109  0  0  0  0  0  0  0  0999 V2000
   -0.1639   -2.2244   -0.7018 C   0  0  0  0  0  0  0  0  0  0  0  0
   -0.7909   -2.1420    0.7090 C   0  0  0  0  0  0  0  0  0  0  0  0
   -0.9107   -3.5688    1.2976 C   0  0  0  0  0  0  0  0  0  0  0  0
   -2.2147   -1.5292    0.6031 C   0  0  0  0  0  0  0  0  0  0  0  0
   -3.0033   -2.2730   -0.3009 O   0  0  0  0  0  0  0  0  0  0  0  0
   -4.6573   -1.9418   -0.0229 P   0  0  0  0  0  0  0  0  0  0  0  0
   -4.8581   -0.5065    0.4300 O   0  0  0  0  0  0  0  0  0  0  0  0
   -5.2236   -2.9755    1.1937 O   0  0  0  0  0  0  0  0  0  0  0  0
   -5.5308   -2.3033   -1.4448 O   0  0  0  0  0  0  0  0  0  0  0  0
   -5.7288   -0.8701   -2.3457 P   0  0  0  0  0  0  0  0  0  0  0  0
   -6.4294   -1.2016   -3.6442 O   0  0  0  0  0  0  0  0  0  0  0  0
   -4.2150   -0.1971   -2.7097 O   0  0  0  0  0  0  0  0  0  0  0  0
   -6.6702    0.2548   -1.4718 O   0  0  0  0  0  0  0  0  0  0  0  0
   -7.9164   -0.3326   -1.1569 C   0  0  0  0  0  0  0  0  0  0  0  0
   -8.4629    0.3018    0.1256 C   0  0  2  0  0  0  0  0  0  0  0  0
   -9.7190   -0.3996    0.6156 C   0  0  2  0  0  0  0  0  0  0  0  0
  -10.3954    0.6907    1.4195 C   0  0  2  0  0  0  0  0  0  0  0  0
   -9.7806    1.9859    0.8581 C   0  0  1  0  0  0  0  0  0  0  0  0
   -8.7926    1.6519   -0.0952 O   0  0  0  0  0  0  0  0  0  0  0  0
  -10.8086    2.8208    0.2306 N   0  0  0  0  0  0  0  0  0  0  0  0
  -11.4255    3.9066    0.7618 C   0  0  0  0  0  0  0  0  0  0  0  0
  -12.4147    4.4077   -0.0280 N   0  0  0  0  0  0  0  0  0  0  0  0
  -12.3995    3.5759   -1.0870 C   0  0  0  0  0  0  0  0  0  0  0  0
  -13.2164    3.5577   -2.2132 C   0  0  0  0  0  0  0  0  0  0  0  0
  -13.0118    2.5657   -3.1302 N   0  0  0  0  0  0  0  0  0  0  0  0
  -12.0397    1.6155   -2.9488 C   0  0  0  0  0  0  0  0  0  0  0  0
  -11.2486    1.6388   -1.8344 N   0  0  0  0  0  0  0  0  0  0  0  0
  -11.4479    2.6280   -0.9305 C   0  0  0  0  0  0  0  0  0  0  0  0
  -14.2488    4.5250   -2.4087 N   0  0  0  0  0  0  0  0  0  0  0  0
  -10.1579    0.5642    2.8037 O   0  0  0  0  0  0  0  0  0  0  0  0
   -9.3691   -1.5094    1.4217 O   0  0  0  0  0  0  0  0  0  0  0  0
  -10.3624   -2.8401    1.0287 P   0  0  0  0  0  0  0  0  0  0  0  0
  -10.0791   -3.9712    1.9899 O   0  0  0  0  0  0  0  0  0  0  0  0
  -11.9943   -2.4062    1.1351 O   0  0  0  0  0  0  0  0  0  0  0  0
  -10.0199   -3.3520   -0.5491 O   0  0  0  0  0  0  0  0  0  0  0  0
    0.0888   -1.2268    1.6292 C   0  0  2  0  0  0  0  0  0  0  0  0
    1.5109   -1.7216    1.7734 C   0  0  0  0  0  0  0  0  0  0  0  0
    1.7908   -2.5671    2.6683 O   0  0  0  0  0  0  0  0  0  0  0  0
    2.5363   -1.2453    0.8870 N   0  0  0  0  0  0  0  0  0  0  0  0
    3.8855   -1.8179    0.8963 C   0  0  0  0  0  0  0  0  0  0  0  0
    4.7389   -1.2283   -0.2382 C   0  0  0  0  0  0  0  0  0  0  0  0
    6.1165   -1.8332   -0.2717 C   0  0  0  0  0  0  0  0  0  0  0  0
    6.2465   -3.0898   -0.2238 O   0  0  0  0  0  0  0  0  0  0  0  0
    7.2715   -0.9970   -0.4407 N   0  0  0  0  0  0  0  0  0  0  0  0
    8.6133   -1.5469   -0.6377 C   0  0  0  0  0  0  0  0  0  0  0  0
    9.2163   -2.0335    0.6853 C   0  0  0  0  0  0  0  0  0  0  0  0
    9.3484   -0.6855    1.9195 S   0  0  0  0  0  0  0  0  0  0  0  0
   10.8559    0.0353    1.2488 C   0  0  0  0  0  0  0  0  0  0  0  0
   11.9346   -0.4644    1.5348 O   0  0  0  0  0  0  0  0  0  0  0  0
   10.7772    1.3033    0.4368 C   0  0  0  0  0  0  0  0  0  0  0  0
   11.9510    1.4841   -0.5473 C   0  0  0  0  0  0  0  0  0  0  0  0
   13.1827    2.1304    0.1399 C   0  0  0  0  0  0  0  0  0  0  0  0
   14.3294    2.4409   -0.7688 N   0  0  0  0  0  0  0  0  0  0  0  0
   13.9235    3.3713   -1.8523 C   0  0  0  0  0  0  0  0  0  0  0  0
   15.3944    3.0951    0.0325 C   0  0  0  0  0  0  0  0  0  0  0  0
   14.8922    1.2050   -1.3608 C   0  0  0  0  0  0  0  0  0  0  0  0
   -0.4957   -1.1065    2.9038 O   0  0  0  0  0  0  0  0  0  0  0  0
    0.8388   -2.7014   -0.6648 H   0  0  0  0  0  0  0  0  0  0  0  0
   -0.7878   -2.8370   -1.3881 H   0  0  0  0  0  0  0  0  0  0  0  0
   -0.0598   -1.2105   -1.1451 H   0  0  0  0  0  0  0  0  0  0  0  0
   -1.3470   -3.5409    2.3194 H   0  0  0  0  0  0  0  0  0  0  0  0
   -1.5716   -4.2031    0.6655 H   0  0  0  0  0  0  0  0  0  0  0  0
    0.0792   -4.0713    1.3488 H   0  0  0  0  0  0  0  0  0  0  0  0
   -2.6624   -1.5111    1.6261 H   0  0  0  0  0  0  0  0  0  0  0  0
   -2.1399   -0.4804    0.2378 H   0  0  0  0  0  0  0  0  0  0  0  0
   -4.8120   -2.6325    2.0280 H   0  0  0  0  0  0  0  0  0  0  0  0
   -4.0492    0.4703   -1.9989 H   0  0  0  0  0  0  0  0  0  0  0  0
   -7.8507   -1.4310   -0.9755 H   0  0  0  0  0  0  0  0  0  0  0  0
   -8.6264   -0.1556   -1.9954 H   0  0  0  0  0  0  0  0  0  0  0  0
   -7.6712    0.2484    0.9119 H   0  0  0  0  0  0  0  0  0  0  0  0
  -10.3612   -0.6384   -0.2714 H   0  0  0  0  0  0  0  0  0  0  0  0
  -11.4938    0.6458    1.2522 H   0  0  0  0  0  0  0  0  0  0  0  0
   -9.2962    2.5666    1.6763 H   0  0  0  0  0  0  0  0  0  0  0  0
  -11.1727    4.3269    1.7242 H   0  0  0  0  0  0  0  0  0  0  0  0
  -11.9016    0.8361   -3.6844 H   0  0  0  0  0  0  0  0  0  0  0  0
  -14.8380    4.4987   -3.2719 H   0  0  0  0  0  0  0  0  0  0  0  0
  -14.4183    5.2783   -1.7067 H   0  0  0  0  0  0  0  0  0  0  0  0
   -9.1765    0.5923    2.9528 H   0  0  0  0  0  0  0  0  0  0  0  0
  -12.0903   -2.0177    2.0422 H   0  0  0  0  0  0  0  0  0  0  0  0
  -10.6792   -4.0671   -0.7347 H   0  0  0  0  0  0  0  0  0  0  0  0
    0.1266   -0.2131    1.1630 H   0  0  0  0  0  0  0  0  0  0  0  0
    2.2895   -0.5169    0.1798 H   0  0  0  0  0  0  0  0  0  0  0  0
    3.8105   -2.9208    0.7702 H   0  0  0  0  0  0  0  0  0  0  0  0
    4.3694   -1.6025    1.8718 H   0  0  0  0  0  0  0  0  0  0  0  0
    4.2454   -1.4219   -1.2151 H   0  0  0  0  0  0  0  0  0  0  0  0
    4.8113   -0.1282   -0.1033 H   0  0  0  0  0  0  0  0  0  0  0  0
    7.1451    0.0348   -0.5325 H   0  0  0  0  0  0  0  0  0  0  0  0
    8.5651   -2.3910   -1.3584 H   0  0  0  0  0  0  0  0  0  0  0  0
    9.2695   -0.7787   -1.0903 H   0  0  0  0  0  0  0  0  0  0  0  0
   10.2189   -2.4763    0.4969 H   0  0  0  0  0  0  0  0  0  0  0  0
    8.5737   -2.8270    1.1193 H   0  0  0  0  0  0  0  0  0  0  0  0
   10.7116    2.1708    1.1304 H   0  0  0  0  0  0  0  0  0  0  0  0
    9.8280    1.2895   -0.1410 H   0  0  0  0  0  0  0  0  0  0  0  0
   11.5852    2.1385   -1.3620 H   0  0  0  0  0  0  0  0  0  0  0  0
   12.2101    0.5045   -0.9938 H   0  0  0  0  0  0  0  0  0  0  0  0
   12.8437    3.0639    0.6403 H   0  0  0  0  0  0  0  0  0  0  0  0
   13.5240    1.4534    0.9546 H   0  0  0  0  0  0  0  0  0  0  0  0
   13.3560    4.2352   -1.4412 H   0  0  0  0  0  0  0  0  0  0  0  0
   14.8133    3.7709   -2.3885 H   0  0  0  0  0  0  0  0  0  0  0  0
   13.2912    2.8674   -2.6189 H   0  0  0  0  0  0  0  0  0  0  0  0
   16.2814    3.3315   -0.5999 H   0  0  0  0  0  0  0  0  0  0  0  0
   15.0337    4.0514    0.4768 H   0  0  0  0  0  0  0  0  0  0  0  0
   15.7422    2.4308    0.8593 H   0  0  0  0  0  0  0  0  0  0  0  0
   14.1800    0.7215   -2.0621 H   0  0  0  0  0  0  0  0  0  0  0  0
   15.8126    1.4261   -1.9414 H   0  0  0  0  0  0  0  0  0  0  0  0
   15.1547    0.4686   -0.5728 H   0  0  0  0  0  0  0  0  0  0  0  0
   -0.1059   -0.2957    3.3246 H   0  0  0  0  0  0  0  0  0  0  0  0
  1  2  1  0
  2  3  1  0
  2  4  1  0
  4  5  1  0
  5  6  1  0
  6  7  2  0
  6  8  1  0
  6  9  1  0
  9 10  1  0
 10 11  2  0
 10 12  1  0
 10 13  1  0
 13 14  1  0
 14 15  1  0
 15 16  1  0
 16 17  1  0
 17 18  1  0
 18 19  1  0
 18 20  1  0
 20 21  1  0
 21 22  2  0
 22 23  1  0
 23 24  2  0
 24 25  1  0
 25 26  2  0
 26 27  1  0
 27 28  2  0
 24 29  1  0
 17 30  1  0
 16 31  1  0
 31 32  1  0
 32 33  2  0
 32 34  1  0
 32 35  1  0
  2 36  1  0
 36 37  1  0
 37 38  2  0
 37 39  1  0
 39 40  1  0
 40 41  1  0
 41 42  1  0
 42 43  2  0
 42 44  1  0
 44 45  1  0
 45 46  1  0
 46 47  1  0
 47 48  1  0
 48 49  2  0
 48 50  1  0
 50 51  1  0
 51 52  1  0
 52 53  1  0
 53 54  1  0
 53 55  1  0
 53 56  1  0
 36 57  1  0
 19 15  1  0
 28 20  1  0
 28 23  1  0
  1 58  1  0
  1 59  1  0
  1 60  1  0
  3 61  1  0
  3 62  1  0
  3 63  1  0
  4 64  1  0
  4 65  1  0
  8 66  1  0
 12 67  1  0
 14 68  1  0
 14 69  1  0
 15 70  1  1
 16 71  1  6
 17 72  1  1
 18 73  1  1
 21 74  1  0
 26 75  1  0
 29 76  1  0
 29 77  1  0
 30 78  1  0
 34 79  1  0
 35 80  1  0
 36 81  1  6
 39 82  1  0
 40 83  1  0
 40 84  1  0
 41 85  1  0
 41 86  1  0
 44 87  1  0
 45 88  1  0
 45 89  1  0
 46 90  1  0
 46 91  1  0
 50 92  1  0
 50 93  1  0
 51 94  1  0
 51 95  1  0
 52 96  1  0
 52 97  1  0
 54 98  1  0
 54 99  1  0
 54100  1  0
 55101  1  0
 55102  1  0
 55103  1  0
 56104  1  0
 56105  1  0
 56106  1  0
 57107  1  0
M  CHG  1  53   1
M  END
